Circuit: * C:\Users\Robet\Documents\ee_projects\PortablePowerSupply\PortablePowerSupply\hw\sim\constant_current_load.asc

Direct Newton iteration for .op point succeeded.

Date: Sun Mar 28 00:46:16 2021
Total elapsed time: 0.107 seconds.

tnom = 27
temp = 27
method = modified trap
totiter = 2126
traniter = 2117
tranpoints = 1058
accept = 1052
rejected = 6
matrix size = 9
fillins = 0
solver = Normal
Matrix Compiler1:      26 opcodes  0.1/[0.1]/0.1
Matrix Compiler2: off  [0.1]/0.1/0.1

